NOVO24/1726519/GD.dss
! GERACAO DISTRIBUIDA — gerada de UGBT_tab e UGMT_tab
! Unidades com potencia nula sao omitidas (gerariam NaN).
! 144 unidades descartadas por potencia nula.
! 401 unidades de BT realocadas para o secundario do transformador (rede secundaria nao modelada).
! 0 unidades descartadas por ponto de conexao ausente da rede.
! irradiance=1 — ver o docstring: 1,0 e meio-dia de ceu claro, nao a ponta de carga.
! 4 barras tiveram a GD limitada a capacidade do transformador (62 kW cortados).
! inversores em pf=1 — ver o docstring de _pv: 0,92 e capacidade exigida pelo PRODIST, nao despacho.
! 0 unidades de MT ligadas pelo PAC da carga (casadas por CEG_GD): o PAC da UGMT nao existe na SSDMT.
New PVSystem.GD_5954a201741ce324e9d4aee83ec206828a11b55b0132f8c7a307f6f02d2d9497 phases=3 bus1=node_123035737.1.2.3 conn=wye kv=13.8000 pf=1 pmpp=34.20 kva=34.20 irradiance=1 temperature=25 %cutin=20 %cutout=20 effcurve=MyEff P-TCurve=MyPvsT Daily=IRRAD_DIA TDaily=TEMP_DIA
New PVSystem.GD_b968fde3da5597c3e126e201e75c03c0016925f06c8dafd79539241125ddfb9f phases=3 bus1=node_115484684.1.2.3 conn=wye kv=13.8000 pf=1 pmpp=74.73 kva=74.73 irradiance=1 temperature=25 %cutin=20 %cutout=20 effcurve=MyEff P-TCurve=MyPvsT Daily=IRRAD_DIA TDaily=TEMP_DIA
New PVSystem.GD_2e5510fd3f4a880cec186400d0093e1763f33f84997cc6546c8ed6cf05df1c5d phases=3 bus1=node_115145096.1.2.3 conn=wye kv=13.8000 pf=1 pmpp=100.51 kva=100.51 irradiance=1 temperature=25 %cutin=20 %cutout=20 effcurve=MyEff P-TCurve=MyPvsT Daily=IRRAD_DIA TDaily=TEMP_DIA
New PVSystem.GD_e17aeea6d165330714990d51256e5feee50ab1e6b7c032ebb7a0e8a162104b2c phases=3 bus1=node_122568757.1.2.3 conn=wye kv=13.8000 pf=1 pmpp=27.72 kva=27.72 irradiance=1 temperature=25 %cutin=20 %cutout=20 effcurve=MyEff P-TCurve=MyPvsT Daily=IRRAD_DIA TDaily=TEMP_DIA
New PVSystem.GD_7b27f1c1e8145ade7c11e07ea01c13b76cd5828bd12758eb089fd9441e0c2a4d phases=3 bus1=node_2223579268.1.2.3 conn=wye kv=13.8000 pf=1 pmpp=165.65 kva=165.65 irradiance=1 temperature=25 %cutin=20 %cutout=20 effcurve=MyEff P-TCurve=MyPvsT Daily=IRRAD_DIA TDaily=TEMP_DIA
New PVSystem.GD_9a4527afc68122372ae4a128959f82d1d3f33811fe78e339493333ac6448db4c phases=3 bus1=node_108541316.1.2.3 conn=wye kv=13.8000 pf=1 pmpp=60.84 kva=60.84 irradiance=1 temperature=25 %cutin=20 %cutout=20 effcurve=MyEff P-TCurve=MyPvsT Daily=IRRAD_DIA TDaily=TEMP_DIA
New PVSystem.GD_09323ee2a4a43f474670b7dcdfc398dca3dae8db5fbf70fab6a3fc99cb3f16d6 phases=3 bus1=node_108541261.1.2.3 conn=wye kv=13.8000 pf=1 pmpp=50.78 kva=50.78 irradiance=1 temperature=25 %cutin=20 %cutout=20 effcurve=MyEff P-TCurve=MyPvsT Daily=IRRAD_DIA TDaily=TEMP_DIA
New PVSystem.GD_e8ab09b289d01305821249b2c4d4e7b615fc9cddcee89846786a011cdf145117 phases=3 bus1=node_107586940.1.2.3 conn=wye kv=13.8000 pf=1 pmpp=19.43 kva=19.43 irradiance=1 temperature=25 %cutin=20 %cutout=20 effcurve=MyEff P-TCurve=MyPvsT Daily=IRRAD_DIA TDaily=TEMP_DIA
New PVSystem.GD_191863297cb389196705e293dac1643768685366865d550c138f69aaffd80199 phases=3 bus1=node_425292717.1.2.3 conn=wye kv=13.8000 pf=1 pmpp=14.71 kva=14.71 irradiance=1 temperature=25 %cutin=20 %cutout=20 effcurve=MyEff P-TCurve=MyPvsT Daily=IRRAD_DIA TDaily=TEMP_DIA
New PVSystem.GD_c25e7bd6ff262a0649dfa2389f30e99129123409490e6af22e7ebb4546459df2 phases=3 bus1=node_112019069.1.2.3 conn=wye kv=13.8000 pf=1 pmpp=24.72 kva=24.72 irradiance=1 temperature=25 %cutin=20 %cutout=20 effcurve=MyEff P-TCurve=MyPvsT Daily=IRRAD_DIA TDaily=TEMP_DIA
New PVSystem.GD_4244838774546b1df166451c91170d01975a9bba8d29c53a9b0b8b40bd018755_1 phases=1 bus1=node_418500132.1.4 conn=wye kv=0.1270 pf=1 pmpp=0.62 kva=0.62 irradiance=1 temperature=25 %cutin=20 %cutout=20 effcurve=MyEff P-TCurve=MyPvsT Daily=IRRAD_DIA TDaily=TEMP_DIA
New PVSystem.GD_4244838774546b1df166451c91170d01975a9bba8d29c53a9b0b8b40bd018755_2 phases=1 bus1=node_418500132.2.4 conn=wye kv=0.1270 pf=1 pmpp=0.62 kva=0.62 irradiance=1 temperature=25 %cutin=20 %cutout=20 effcurve=MyEff P-TCurve=MyPvsT Daily=IRRAD_DIA TDaily=TEMP_DIA
New PVSystem.GD_4244838774546b1df166451c91170d01975a9bba8d29c53a9b0b8b40bd018755_3 phases=1 bus1=node_418500132.3.4 conn=wye kv=0.1270 pf=1 pmpp=0.62 kva=0.62 irradiance=1 temperature=25 %cutin=20 %cutout=20 effcurve=MyEff P-TCurve=MyPvsT Daily=IRRAD_DIA TDaily=TEMP_DIA
New PVSystem.GD_950b515e414fdf822628da5c67b5844f4d4fde824d8b79b3752b53a98d6dd0b8_1 phases=1 bus1=node_418500132.1.4 conn=wye kv=0.1270 pf=1 pmpp=0.11 kva=0.11 irradiance=1 temperature=25 %cutin=20 %cutout=20 effcurve=MyEff P-TCurve=MyPvsT Daily=IRRAD_DIA TDaily=TEMP_DIA
New PVSystem.GD_950b515e414fdf822628da5c67b5844f4d4fde824d8b79b3752b53a98d6dd0b8_2 phases=1 bus1=node_418500132.2.4 conn=wye kv=0.1270 pf=1 pmpp=0.11 kva=0.11 irradiance=1 temperature=25 %cutin=20 %cutout=20 effcurve=MyEff P-TCurve=MyPvsT Daily=IRRAD_DIA TDaily=TEMP_DIA
New PVSystem.GD_950b515e414fdf822628da5c67b5844f4d4fde824d8b79b3752b53a98d6dd0b8_3 phases=1 bus1=node_418500132.3.4 conn=wye kv=0.1270 pf=1 pmpp=0.11 kva=0.11 irradiance=1 temperature=25 %cutin=20 %cutout=20 effcurve=MyEff P-TCurve=MyPvsT Daily=IRRAD_DIA TDaily=TEMP_DIA
New PVSystem.GD_0548eb4903f0c0c92fdcc60df90a5abbcac81a3aca536861cd71186d6090673d_1 phases=1 bus1=node_418500132.1.4 conn=wye kv=0.1270 pf=1 pmpp=0.63 kva=0.63 irradiance=1 temperature=25 %cutin=20 %cutout=20 effcurve=MyEff P-TCurve=MyPvsT Daily=IRRAD_DIA TDaily=TEMP_DIA
New PVSystem.GD_0548eb4903f0c0c92fdcc60df90a5abbcac81a3aca536861cd71186d6090673d_2 phases=1 bus1=node_418500132.2.4 conn=wye kv=0.1270 pf=1 pmpp=0.63 kva=0.63 irradiance=1 temperature=25 %cutin=20 %cutout=20 effcurve=MyEff P-TCurve=MyPvsT Daily=IRRAD_DIA TDaily=TEMP_DIA
New PVSystem.GD_0548eb4903f0c0c92fdcc60df90a5abbcac81a3aca536861cd71186d6090673d_3 phases=1 bus1=node_418500132.3.4 conn=wye kv=0.1270 pf=1 pmpp=0.63 kva=0.63 irradiance=1 temperature=25 %cutin=20 %cutout=20 effcurve=MyEff P-TCurve=MyPvsT Daily=IRRAD_DIA TDaily=TEMP_DIA
New PVSystem.GD_756cc5493072beded6f7339b46bc53c32d378d4d1240fd6df097809ba7a6619e_1 phases=1 bus1=node_418500576.1.4 conn=wye kv=0.1270 pf=1 pmpp=0.46 kva=0.46 irradiance=1 temperature=25 %cutin=20 %cutout=20 effcurve=MyEff P-TCurve=MyPvsT Daily=IRRAD_DIA TDaily=TEMP_DIA
New PVSystem.GD_756cc5493072beded6f7339b46bc53c32d378d4d1240fd6df097809ba7a6619e_2 phases=1 bus1=node_418500576.2.4 conn=wye kv=0.1270 pf=1 pmpp=0.46 kva=0.46 irradiance=1 temperature=25 %cutin=20 %cutout=20 effcurve=MyEff P-TCurve=MyPvsT Daily=IRRAD_DIA TDaily=TEMP_DIA
New PVSystem.GD_756cc5493072beded6f7339b46bc53c32d378d4d1240fd6df097809ba7a6619e_3 phases=1 bus1=node_418500576.3.4 conn=wye kv=0.1270 pf=1 pmpp=0.46 kva=0.46 irradiance=1 temperature=25 %cutin=20 %cutout=20 effcurve=MyEff P-TCurve=MyPvsT Daily=IRRAD_DIA TDaily=TEMP_DIA
New PVSystem.GD_b2485479042cf8418617b19fa74a37b5de230ca61739020631c8fc9317e94c33_1 phases=1 bus1=node_418500276.1.4 conn=wye kv=0.1270 pf=1 pmpp=0.88 kva=0.88 irradiance=1 temperature=25 %cutin=20 %cutout=20 effcurve=MyEff P-TCurve=MyPvsT Daily=IRRAD_DIA TDaily=TEMP_DIA
New PVSystem.GD_b2485479042cf8418617b19fa74a37b5de230ca61739020631c8fc9317e94c33_2 phases=1 bus1=node_418500276.2.4 conn=wye kv=0.1270 pf=1 pmpp=0.88 kva=0.88 irradiance=1 temperature=25 %cutin=20 %cutout=20 effcurve=MyEff P-TCurve=MyPvsT Daily=IRRAD_DIA TDaily=TEMP_DIA
New PVSystem.GD_b2485479042cf8418617b19fa74a37b5de230ca61739020631c8fc9317e94c33_3 phases=1 bus1=node_418500276.3.4 conn=wye kv=0.1270 pf=1 pmpp=0.88 kva=0.88 irradiance=1 temperature=25 %cutin=20 %cutout=20 effcurve=MyEff P-TCurve=MyPvsT Daily=IRRAD_DIA TDaily=TEMP_DIA
New PVSystem.GD_794954b6e243eb7a0d97d0770f43f15da28ee6aca2850391adeb814cf287c2c6_1 phases=1 bus1=node_418500276.1.4 conn=wye kv=0.1270 pf=1 pmpp=0.25 kva=0.25 irradiance=1 temperature=25 %cutin=20 %cutout=20 effcurve=MyEff P-TCurve=MyPvsT Daily=IRRAD_DIA TDaily=TEMP_DIA
New PVSystem.GD_794954b6e243eb7a0d97d0770f43f15da28ee6aca2850391adeb814cf287c2c6_2 phases=1 bus1=node_418500276.2.4 conn=wye kv=0.1270 pf=1 pmpp=0.25 kva=0.25 irradiance=1 temperature=25 %cutin=20 %cutout=20 effcurve=MyEff P-TCurve=MyPvsT Daily=IRRAD_DIA TDaily=TEMP_DIA
New PVSystem.GD_794954b6e243eb7a0d97d0770f43f15da28ee6aca2850391adeb814cf287c2c6_3 phases=1 bus1=node_418500276.3.4 conn=wye kv=0.1270 pf=1 pmpp=0.25 kva=0.25 irradiance=1 temperature=25 %cutin=20 %cutout=20 effcurve=MyEff P-TCurve=MyPvsT Daily=IRRAD_DIA TDaily=TEMP_DIA
New PVSystem.GD_9cf4b36697c5fad1d7b18f7cd5e593200078a5108c979dfa1f2949dccc7b2fb5_1 phases=1 bus1=node_418500489.1.4 conn=wye kv=0.1270 pf=1 pmpp=0.54 kva=0.54 irradiance=1 temperature=25 %cutin=20 %cutout=20 effcurve=MyEff P-TCurve=MyPvsT Daily=IRRAD_DIA TDaily=TEMP_DIA
New PVSystem.GD_9cf4b36697c5fad1d7b18f7cd5e593200078a5108c979dfa1f2949dccc7b2fb5_2 phases=1 bus1=node_418500489.2.4 conn=wye kv=0.1270 pf=1 pmpp=0.54 kva=0.54 irradiance=1 temperature=25 %cutin=20 %cutout=20 effcurve=MyEff P-TCurve=MyPvsT Daily=IRRAD_DIA TDaily=TEMP_DIA
New PVSystem.GD_9cf4b36697c5fad1d7b18f7cd5e593200078a5108c979dfa1f2949dccc7b2fb5_3 phases=1 bus1=node_418500489.3.4 conn=wye kv=0.1270 pf=1 pmpp=0.54 kva=0.54 irradiance=1 temperature=25 %cutin=20 %cutout=20 effcurve=MyEff P-TCurve=MyPvsT Daily=IRRAD_DIA TDaily=TEMP_DIA
New PVSystem.GD_78db4da9fb69b20545897552633bcea2237eefbdc8ffb6efce7878485a640e67_1 phases=1 bus1=node_418500489.1.4 conn=wye kv=0.1270 pf=1 pmpp=0.30 kva=0.30 irradiance=1 temperature=25 %cutin=20 %cutout=20 effcurve=MyEff P-TCurve=MyPvsT Daily=IRRAD_DIA TDaily=TEMP_DIA
New PVSystem.GD_78db4da9fb69b20545897552633bcea2237eefbdc8ffb6efce7878485a640e67_2 phases=1 bus1=node_418500489.2.4 conn=wye kv=0.1270 pf=1 pmpp=0.30 kva=0.30 irradiance=1 temperature=25 %cutin=20 %cutout=20 effcurve=MyEff P-TCurve=MyPvsT Daily=IRRAD_DIA TDaily=TEMP_DIA
New PVSystem.GD_78db4da9fb69b20545897552633bcea2237eefbdc8ffb6efce7878485a640e67_3 phases=1 bus1=node_418500489.3.4 conn=wye kv=0.1270 pf=1 pmpp=0.30 kva=0.30 irradiance=1 temperature=25 %cutin=20 %cutout=20 effcurve=MyEff P-TCurve=MyPvsT Daily=IRRAD_DIA TDaily=TEMP_DIA
New PVSystem.GD_f60cc9c040ce3ef2b7fbc5366fb057093d1a939626b9abbcaf0f24ffc8b90b63_1 phases=1 bus1=node_418500489.1.4 conn=wye kv=0.1270 pf=1 pmpp=0.16 kva=0.16 irradiance=1 temperature=25 %cutin=20 %cutout=20 effcurve=MyEff P-TCurve=MyPvsT Daily=IRRAD_DIA TDaily=TEMP_DIA
New PVSystem.GD_f60cc9c040ce3ef2b7fbc5366fb057093d1a939626b9abbcaf0f24ffc8b90b63_2 phases=1 bus1=node_418500489.2.4 conn=wye kv=0.1270 pf=1 pmpp=0.16 kva=0.16 irradiance=1 temperature=25 %cutin=20 %cutout=20 effcurve=MyEff P-TCurve=MyPvsT Daily=IRRAD_DIA TDaily=TEMP_DIA
New PVSystem.GD_f60cc9c040ce3ef2b7fbc5366fb057093d1a939626b9abbcaf0f24ffc8b90b63_3 phases=1 bus1=node_418500489.3.4 conn=wye kv=0.1270 pf=1 pmpp=0.16 kva=0.16 irradiance=1 temperature=25 %cutin=20 %cutout=20 effcurve=MyEff P-TCurve=MyPvsT Daily=IRRAD_DIA TDaily=TEMP_DIA
New PVSystem.GD_190088b6e518a4e254d8b1a4f263220adb7b807f7de98ad09b45ddc54e303963_1 phases=1 bus1=node_418020078.1.4 conn=wye kv=0.1270 pf=1 pmpp=0.23 kva=0.23 irradiance=1 temperature=25 %cutin=20 %cutout=20 effcurve=MyEff P-TCurve=MyPvsT Daily=IRRAD_DIA TDaily=TEMP_DIA
New PVSystem.GD_190088b6e518a4e254d8b1a4f263220adb7b807f7de98ad09b45ddc54e303963_2 phases=1 bus1=node_418020078.2.4 conn=wye kv=0.1270 pf=1 pmpp=0.23 kva=0.23 irradiance=1 temperature=25 %cutin=20 %cutout=20 effcurve=MyEff P-TCurve=MyPvsT Daily=IRRAD_DIA TDaily=TEMP_DIA
New PVSystem.GD_190088b6e518a4e254d8b1a4f263220adb7b807f7de98ad09b45ddc54e303963_3 phases=1 bus1=node_418020078.3.4 conn=wye kv=0.1270 pf=1 pmpp=0.23 kva=0.23 irradiance=1 temperature=25 %cutin=20 %cutout=20 effcurve=MyEff P-TCurve=MyPvsT Daily=IRRAD_DIA TDaily=TEMP_DIA
New PVSystem.GD_18f7fb8883443445e257cc722791e908ee14f83b49b51fd35763a5b1c5887596_1 phases=1 bus1=node_418020078.1.4 conn=wye kv=0.1270 pf=1 pmpp=7.81 kva=7.81 irradiance=1 temperature=25 %cutin=20 %cutout=20 effcurve=MyEff P-TCurve=MyPvsT Daily=IRRAD_DIA TDaily=TEMP_DIA
New PVSystem.GD_18f7fb8883443445e257cc722791e908ee14f83b49b51fd35763a5b1c5887596_2 phases=1 bus1=node_418020078.2.4 conn=wye kv=0.1270 pf=1 pmpp=7.81 kva=7.81 irradiance=1 temperature=25 %cutin=20 %cutout=20 effcurve=MyEff P-TCurve=MyPvsT Daily=IRRAD_DIA TDaily=TEMP_DIA
New PVSystem.GD_18f7fb8883443445e257cc722791e908ee14f83b49b51fd35763a5b1c5887596_3 phases=1 bus1=node_418020078.3.4 conn=wye kv=0.1270 pf=1 pmpp=7.81 kva=7.81 irradiance=1 temperature=25 %cutin=20 %cutout=20 effcurve=MyEff P-TCurve=MyPvsT Daily=IRRAD_DIA TDaily=TEMP_DIA
New PVSystem.GD_b97fe4c293e57d335cbef29225d3de67c643a618db1df1fa7664fae1c4ae9038_1 phases=1 bus1=node_418530303.1.4 conn=wye kv=0.1270 pf=1 pmpp=1.11 kva=1.11 irradiance=1 temperature=25 %cutin=20 %cutout=20 effcurve=MyEff P-TCurve=MyPvsT Daily=IRRAD_DIA TDaily=TEMP_DIA
New PVSystem.GD_b97fe4c293e57d335cbef29225d3de67c643a618db1df1fa7664fae1c4ae9038_2 phases=1 bus1=node_418530303.2.4 conn=wye kv=0.1270 pf=1 pmpp=1.11 kva=1.11 irradiance=1 temperature=25 %cutin=20 %cutout=20 effcurve=MyEff P-TCurve=MyPvsT Daily=IRRAD_DIA TDaily=TEMP_DIA
New PVSystem.GD_b97fe4c293e57d335cbef29225d3de67c643a618db1df1fa7664fae1c4ae9038_3 phases=1 bus1=node_418530303.3.4 conn=wye kv=0.1270 pf=1 pmpp=1.11 kva=1.11 irradiance=1 temperature=25 %cutin=20 %cutout=20 effcurve=MyEff P-TCurve=MyPvsT Daily=IRRAD_DIA TDaily=TEMP_DIA
New PVSystem.GD_58217242c2a2aae59bf2d94a2a4e8a2559da180ab84818b5a68253b628d470b3_1 phases=1 bus1=node_418018158.1.4 conn=wye kv=0.1270 pf=1 pmpp=0.17 kva=0.17 irradiance=1 temperature=25 %cutin=20 %cutout=20 effcurve=MyEff P-TCurve=MyPvsT Daily=IRRAD_DIA TDaily=TEMP_DIA
New PVSystem.GD_58217242c2a2aae59bf2d94a2a4e8a2559da180ab84818b5a68253b628d470b3_2 phases=1 bus1=node_418018158.2.4 conn=wye kv=0.1270 pf=1 pmpp=0.17 kva=0.17 irradiance=1 temperature=25 %cutin=20 %cutout=20 effcurve=MyEff P-TCurve=MyPvsT Daily=IRRAD_DIA TDaily=TEMP_DIA
New PVSystem.GD_58217242c2a2aae59bf2d94a2a4e8a2559da180ab84818b5a68253b628d470b3_3 phases=1 bus1=node_418018158.3.4 conn=wye kv=0.1270 pf=1 pmpp=0.17 kva=0.17 irradiance=1 temperature=25 %cutin=20 %cutout=20 effcurve=MyEff P-TCurve=MyPvsT Daily=IRRAD_DIA TDaily=TEMP_DIA
New PVSystem.GD_0b4186da4e0c8dad7d70a70d6374b65dac58e442cc891f87d46dcad9f3a35354_1 phases=1 bus1=node_418023618.1.4 conn=wye kv=0.1270 pf=1 pmpp=0.26 kva=0.26 irradiance=1 temperature=25 %cutin=20 %cutout=20 effcurve=MyEff P-TCurve=MyPvsT Daily=IRRAD_DIA TDaily=TEMP_DIA
New PVSystem.GD_0b4186da4e0c8dad7d70a70d6374b65dac58e442cc891f87d46dcad9f3a35354_2 phases=1 bus1=node_418023618.2.4 conn=wye kv=0.1270 pf=1 pmpp=0.26 kva=0.26 irradiance=1 temperature=25 %cutin=20 %cutout=20 effcurve=MyEff P-TCurve=MyPvsT Daily=IRRAD_DIA TDaily=TEMP_DIA
New PVSystem.GD_0b4186da4e0c8dad7d70a70d6374b65dac58e442cc891f87d46dcad9f3a35354_3 phases=1 bus1=node_418023618.3.4 conn=wye kv=0.1270 pf=1 pmpp=0.26 kva=0.26 irradiance=1 temperature=25 %cutin=20 %cutout=20 effcurve=MyEff P-TCurve=MyPvsT Daily=IRRAD_DIA TDaily=TEMP_DIA
New PVSystem.GD_226aadacff14e46937c4e30aa3a2fde27d72b1fcc7f913e0fec9bb3b7f9c984c_1 phases=1 bus1=node_418023618.1.4 conn=wye kv=0.1270 pf=1 pmpp=0.54 kva=0.54 irradiance=1 temperature=25 %cutin=20 %cutout=20 effcurve=MyEff P-TCurve=MyPvsT Daily=IRRAD_DIA TDaily=TEMP_DIA
New PVSystem.GD_226aadacff14e46937c4e30aa3a2fde27d72b1fcc7f913e0fec9bb3b7f9c984c_2 phases=1 bus1=node_418023618.2.4 conn=wye kv=0.1270 pf=1 pmpp=0.54 kva=0.54 irradiance=1 temperature=25 %cutin=20 %cutout=20 effcurve=MyEff P-TCurve=MyPvsT Daily=IRRAD_DIA TDaily=TEMP_DIA
New PVSystem.GD_226aadacff14e46937c4e30aa3a2fde27d72b1fcc7f913e0fec9bb3b7f9c984c_3 phases=1 bus1=node_418023618.3.4 conn=wye kv=0.1270 pf=1 pmpp=0.54 kva=0.54 irradiance=1 temperature=25 %cutin=20 %cutout=20 effcurve=MyEff P-TCurve=MyPvsT Daily=IRRAD_DIA TDaily=TEMP_DIA
New PVSystem.GD_2afa5916235b025df0a030bc7ce236c475047cac54de38552f19e279c8cb6668_1 phases=1 bus1=node_418023618.1.4 conn=wye kv=0.1270 pf=1 pmpp=0.04 kva=0.10 irradiance=1 temperature=25 %cutin=20 %cutout=20 effcurve=MyEff P-TCurve=MyPvsT Daily=IRRAD_DIA TDaily=TEMP_DIA
New PVSystem.GD_2afa5916235b025df0a030bc7ce236c475047cac54de38552f19e279c8cb6668_2 phases=1 bus1=node_418023618.2.4 conn=wye kv=0.1270 pf=1 pmpp=0.04 kva=0.10 irradiance=1 temperature=25 %cutin=20 %cutout=20 effcurve=MyEff P-TCurve=MyPvsT Daily=IRRAD_DIA TDaily=TEMP_DIA
New PVSystem.GD_2afa5916235b025df0a030bc7ce236c475047cac54de38552f19e279c8cb6668_3 phases=1 bus1=node_418023618.3.4 conn=wye kv=0.1270 pf=1 pmpp=0.04 kva=0.10 irradiance=1 temperature=25 %cutin=20 %cutout=20 effcurve=MyEff P-TCurve=MyPvsT Daily=IRRAD_DIA TDaily=TEMP_DIA
New PVSystem.GD_1373cc7a1b065e69cea3f27b7193a240f45259513c15e39ab217cce28af88db6_1 phases=1 bus1=node_418023618.1.4 conn=wye kv=0.1270 pf=1 pmpp=0.36 kva=0.36 irradiance=1 temperature=25 %cutin=20 %cutout=20 effcurve=MyEff P-TCurve=MyPvsT Daily=IRRAD_DIA TDaily=TEMP_DIA
New PVSystem.GD_1373cc7a1b065e69cea3f27b7193a240f45259513c15e39ab217cce28af88db6_2 phases=1 bus1=node_418023618.2.4 conn=wye kv=0.1270 pf=1 pmpp=0.36 kva=0.36 irradiance=1 temperature=25 %cutin=20 %cutout=20 effcurve=MyEff P-TCurve=MyPvsT Daily=IRRAD_DIA TDaily=TEMP_DIA
New PVSystem.GD_1373cc7a1b065e69cea3f27b7193a240f45259513c15e39ab217cce28af88db6_3 phases=1 bus1=node_418023618.3.4 conn=wye kv=0.1270 pf=1 pmpp=0.36 kva=0.36 irradiance=1 temperature=25 %cutin=20 %cutout=20 effcurve=MyEff P-TCurve=MyPvsT Daily=IRRAD_DIA TDaily=TEMP_DIA
New PVSystem.GD_630951f337fe19386bb25b5cee428d04ef7b969be22416706bb087b8cd3e36ad_1 phases=1 bus1=node_418025196.1.4 conn=wye kv=0.1270 pf=1 pmpp=0.24 kva=0.24 irradiance=1 temperature=25 %cutin=20 %cutout=20 effcurve=MyEff P-TCurve=MyPvsT Daily=IRRAD_DIA TDaily=TEMP_DIA
New PVSystem.GD_630951f337fe19386bb25b5cee428d04ef7b969be22416706bb087b8cd3e36ad_2 phases=1 bus1=node_418025196.2.4 conn=wye kv=0.1270 pf=1 pmpp=0.24 kva=0.24 irradiance=1 temperature=25 %cutin=20 %cutout=20 effcurve=MyEff P-TCurve=MyPvsT Daily=IRRAD_DIA TDaily=TEMP_DIA
New PVSystem.GD_630951f337fe19386bb25b5cee428d04ef7b969be22416706bb087b8cd3e36ad_3 phases=1 bus1=node_418025196.3.4 conn=wye kv=0.1270 pf=1 pmpp=0.24 kva=0.24 irradiance=1 temperature=25 %cutin=20 %cutout=20 effcurve=MyEff P-TCurve=MyPvsT Daily=IRRAD_DIA TDaily=TEMP_DIA
New PVSystem.GD_16e0e2b6a3dd8a220661b9a0c2a759e1939e0c10e68061d37a2ef832f0254b36_1 phases=1 bus1=node_418500129.1.4 conn=wye kv=0.1270 pf=1 pmpp=9.49 kva=9.49 irradiance=1 temperature=25 %cutin=20 %cutout=20 effcurve=MyEff P-TCurve=MyPvsT Daily=IRRAD_DIA TDaily=TEMP_DIA
New PVSystem.GD_16e0e2b6a3dd8a220661b9a0c2a759e1939e0c10e68061d37a2ef832f0254b36_2 phases=1 bus1=node_418500129.2.4 conn=wye kv=0.1270 pf=1 pmpp=9.49 kva=9.49 irradiance=1 temperature=25 %cutin=20 %cutout=20 effcurve=MyEff P-TCurve=MyPvsT Daily=IRRAD_DIA TDaily=TEMP_DIA
New PVSystem.GD_16e0e2b6a3dd8a220661b9a0c2a759e1939e0c10e68061d37a2ef832f0254b36_3 phases=1 bus1=node_418500129.3.4 conn=wye kv=0.1270 pf=1 pmpp=9.49 kva=9.49 irradiance=1 temperature=25 %cutin=20 %cutout=20 effcurve=MyEff P-TCurve=MyPvsT Daily=IRRAD_DIA TDaily=TEMP_DIA
New PVSystem.GD_c897c16ff7907a1d290dcdfd0c559436231240fc6d1d9023793da730e3a34fbe_1 phases=1 bus1=node_417046701.1.4 conn=wye kv=0.1270 pf=1 pmpp=0.63 kva=0.63 irradiance=1 temperature=25 %cutin=20 %cutout=20 effcurve=MyEff P-TCurve=MyPvsT Daily=IRRAD_DIA TDaily=TEMP_DIA
New PVSystem.GD_c897c16ff7907a1d290dcdfd0c559436231240fc6d1d9023793da730e3a34fbe_2 phases=1 bus1=node_417046701.2.4 conn=wye kv=0.1270 pf=1 pmpp=0.63 kva=0.63 irradiance=1 temperature=25 %cutin=20 %cutout=20 effcurve=MyEff P-TCurve=MyPvsT Daily=IRRAD_DIA TDaily=TEMP_DIA
New PVSystem.GD_c897c16ff7907a1d290dcdfd0c559436231240fc6d1d9023793da730e3a34fbe_3 phases=1 bus1=node_417046701.3.4 conn=wye kv=0.1270 pf=1 pmpp=0.63 kva=0.63 irradiance=1 temperature=25 %cutin=20 %cutout=20 effcurve=MyEff P-TCurve=MyPvsT Daily=IRRAD_DIA TDaily=TEMP_DIA
New PVSystem.GD_680da9489af2b967dc4079a7e6c82efd2099fce58c3d0558a70176f66240fb22_1 phases=1 bus1=node_417046701.1.4 conn=wye kv=0.1270 pf=1 pmpp=1.79 kva=1.79 irradiance=1 temperature=25 %cutin=20 %cutout=20 effcurve=MyEff P-TCurve=MyPvsT Daily=IRRAD_DIA TDaily=TEMP_DIA
New PVSystem.GD_680da9489af2b967dc4079a7e6c82efd2099fce58c3d0558a70176f66240fb22_2 phases=1 bus1=node_417046701.2.4 conn=wye kv=0.1270 pf=1 pmpp=1.79 kva=1.79 irradiance=1 temperature=25 %cutin=20 %cutout=20 effcurve=MyEff P-TCurve=MyPvsT Daily=IRRAD_DIA TDaily=TEMP_DIA
New PVSystem.GD_680da9489af2b967dc4079a7e6c82efd2099fce58c3d0558a70176f66240fb22_3 phases=1 bus1=node_417046701.3.4 conn=wye kv=0.1270 pf=1 pmpp=1.79 kva=1.79 irradiance=1 temperature=25 %cutin=20 %cutout=20 effcurve=MyEff P-TCurve=MyPvsT Daily=IRRAD_DIA TDaily=TEMP_DIA
New PVSystem.GD_cdbcf6d49b5465771c157be7e97741bc42fc4fd5a7bdd83e0f563d461b76cac7_1 phases=1 bus1=node_418648245.1.4 conn=wye kv=0.1270 pf=1 pmpp=0.45 kva=0.45 irradiance=1 temperature=25 %cutin=20 %cutout=20 effcurve=MyEff P-TCurve=MyPvsT Daily=IRRAD_DIA TDaily=TEMP_DIA
New PVSystem.GD_cdbcf6d49b5465771c157be7e97741bc42fc4fd5a7bdd83e0f563d461b76cac7_2 phases=1 bus1=node_418648245.2.4 conn=wye kv=0.1270 pf=1 pmpp=0.45 kva=0.45 irradiance=1 temperature=25 %cutin=20 %cutout=20 effcurve=MyEff P-TCurve=MyPvsT Daily=IRRAD_DIA TDaily=TEMP_DIA
New PVSystem.GD_cdbcf6d49b5465771c157be7e97741bc42fc4fd5a7bdd83e0f563d461b76cac7_3 phases=1 bus1=node_418648245.3.4 conn=wye kv=0.1270 pf=1 pmpp=0.45 kva=0.45 irradiance=1 temperature=25 %cutin=20 %cutout=20 effcurve=MyEff P-TCurve=MyPvsT Daily=IRRAD_DIA TDaily=TEMP_DIA
New PVSystem.GD_8f4210d830d9d3f2f3639d58ca2ef1b509eb9d586d2e593f84d457eaeae96467_1 phases=1 bus1=node_418648245.1.4 conn=wye kv=0.1270 pf=1 pmpp=1.01 kva=1.01 irradiance=1 temperature=25 %cutin=20 %cutout=20 effcurve=MyEff P-TCurve=MyPvsT Daily=IRRAD_DIA TDaily=TEMP_DIA
New PVSystem.GD_8f4210d830d9d3f2f3639d58ca2ef1b509eb9d586d2e593f84d457eaeae96467_2 phases=1 bus1=node_418648245.2.4 conn=wye kv=0.1270 pf=1 pmpp=1.01 kva=1.01 irradiance=1 temperature=25 %cutin=20 %cutout=20 effcurve=MyEff P-TCurve=MyPvsT Daily=IRRAD_DIA TDaily=TEMP_DIA
New PVSystem.GD_8f4210d830d9d3f2f3639d58ca2ef1b509eb9d586d2e593f84d457eaeae96467_3 phases=1 bus1=node_418648245.3.4 conn=wye kv=0.1270 pf=1 pmpp=1.01 kva=1.01 irradiance=1 temperature=25 %cutin=20 %cutout=20 effcurve=MyEff P-TCurve=MyPvsT Daily=IRRAD_DIA TDaily=TEMP_DIA
New PVSystem.GD_71b40fad2f5ac2b1316d2f4f1edd090f75f5a584927a67e1b9f66cfaa0448ab6_1 phases=1 bus1=node_418500555.1.4 conn=wye kv=0.1270 pf=1 pmpp=1.27 kva=1.27 irradiance=1 temperature=25 %cutin=20 %cutout=20 effcurve=MyEff P-TCurve=MyPvsT Daily=IRRAD_DIA TDaily=TEMP_DIA
New PVSystem.GD_71b40fad2f5ac2b1316d2f4f1edd090f75f5a584927a67e1b9f66cfaa0448ab6_2 phases=1 bus1=node_418500555.2.4 conn=wye kv=0.1270 pf=1 pmpp=1.27 kva=1.27 irradiance=1 temperature=25 %cutin=20 %cutout=20 effcurve=MyEff P-TCurve=MyPvsT Daily=IRRAD_DIA TDaily=TEMP_DIA
New PVSystem.GD_71b40fad2f5ac2b1316d2f4f1edd090f75f5a584927a67e1b9f66cfaa0448ab6_3 phases=1 bus1=node_418500555.3.4 conn=wye kv=0.1270 pf=1 pmpp=1.27 kva=1.27 irradiance=1 temperature=25 %cutin=20 %cutout=20 effcurve=MyEff P-TCurve=MyPvsT Daily=IRRAD_DIA TDaily=TEMP_DIA
New PVSystem.GD_aced395ff8f2604dadf7deef3a2b97a3c324d546d0c1c80373fdb66e85a66fd9_1 phases=1 bus1=node_418500555.1.4 conn=wye kv=0.1270 pf=1 pmpp=0.65 kva=0.65 irradiance=1 temperature=25 %cutin=20 %cutout=20 effcurve=MyEff P-TCurve=MyPvsT Daily=IRRAD_DIA TDaily=TEMP_DIA
New PVSystem.GD_aced395ff8f2604dadf7deef3a2b97a3c324d546d0c1c80373fdb66e85a66fd9_2 phases=1 bus1=node_418500555.2.4 conn=wye kv=0.1270 pf=1 pmpp=0.65 kva=0.65 irradiance=1 temperature=25 %cutin=20 %cutout=20 effcurve=MyEff P-TCurve=MyPvsT Daily=IRRAD_DIA TDaily=TEMP_DIA
New PVSystem.GD_aced395ff8f2604dadf7deef3a2b97a3c324d546d0c1c80373fdb66e85a66fd9_3 phases=1 bus1=node_418500555.3.4 conn=wye kv=0.1270 pf=1 pmpp=0.65 kva=0.65 irradiance=1 temperature=25 %cutin=20 %cutout=20 effcurve=MyEff P-TCurve=MyPvsT Daily=IRRAD_DIA TDaily=TEMP_DIA
New PVSystem.GD_364debf720bee15d4509aa4441905244aa61364ddef6893b93ef3ec359029788_1 phases=1 bus1=node_418017744.1.4 conn=wye kv=0.1270 pf=1 pmpp=0.42 kva=0.42 irradiance=1 temperature=25 %cutin=20 %cutout=20 effcurve=MyEff P-TCurve=MyPvsT Daily=IRRAD_DIA TDaily=TEMP_DIA
New PVSystem.GD_364debf720bee15d4509aa4441905244aa61364ddef6893b93ef3ec359029788_2 phases=1 bus1=node_418017744.2.4 conn=wye kv=0.1270 pf=1 pmpp=0.42 kva=0.42 irradiance=1 temperature=25 %cutin=20 %cutout=20 effcurve=MyEff P-TCurve=MyPvsT Daily=IRRAD_DIA TDaily=TEMP_DIA
New PVSystem.GD_364debf720bee15d4509aa4441905244aa61364ddef6893b93ef3ec359029788_3 phases=1 bus1=node_418017744.3.4 conn=wye kv=0.1270 pf=1 pmpp=0.42 kva=0.42 irradiance=1 temperature=25 %cutin=20 %cutout=20 effcurve=MyEff P-TCurve=MyPvsT Daily=IRRAD_DIA TDaily=TEMP_DIA
New PVSystem.GD_d70f597d7e7182dd1b65b0e2fae47d689cade575fedd810da0ef0c184278f9ff_1 phases=1 bus1=node_418017744.1.4 conn=wye kv=0.1270 pf=1 pmpp=0.25 kva=0.25 irradiance=1 temperature=25 %cutin=20 %cutout=20 effcurve=MyEff P-TCurve=MyPvsT Daily=IRRAD_DIA TDaily=TEMP_DIA
New PVSystem.GD_d70f597d7e7182dd1b65b0e2fae47d689cade575fedd810da0ef0c184278f9ff_2 phases=1 bus1=node_418017744.2.4 conn=wye kv=0.1270 pf=1 pmpp=0.25 kva=0.25 irradiance=1 temperature=25 %cutin=20 %cutout=20 effcurve=MyEff P-TCurve=MyPvsT Daily=IRRAD_DIA TDaily=TEMP_DIA
New PVSystem.GD_d70f597d7e7182dd1b65b0e2fae47d689cade575fedd810da0ef0c184278f9ff_3 phases=1 bus1=node_418017744.3.4 conn=wye kv=0.1270 pf=1 pmpp=0.25 kva=0.25 irradiance=1 temperature=25 %cutin=20 %cutout=20 effcurve=MyEff P-TCurve=MyPvsT Daily=IRRAD_DIA TDaily=TEMP_DIA
New PVSystem.GD_69e0bdff975e0dff5ed2c9a71caf4e1b292084965edbd8a4bf26d54538cab3e9_1 phases=1 bus1=node_418022982.1.4 conn=wye kv=0.1270 pf=1 pmpp=2.04 kva=2.04 irradiance=1 temperature=25 %cutin=20 %cutout=20 effcurve=MyEff P-TCurve=MyPvsT Daily=IRRAD_DIA TDaily=TEMP_DIA
New PVSystem.GD_69e0bdff975e0dff5ed2c9a71caf4e1b292084965edbd8a4bf26d54538cab3e9_2 phases=1 bus1=node_418022982.2.4 conn=wye kv=0.1270 pf=1 pmpp=2.04 kva=2.04 irradiance=1 temperature=25 %cutin=20 %cutout=20 effcurve=MyEff P-TCurve=MyPvsT Daily=IRRAD_DIA TDaily=TEMP_DIA
New PVSystem.GD_69e0bdff975e0dff5ed2c9a71caf4e1b292084965edbd8a4bf26d54538cab3e9_3 phases=1 bus1=node_418022982.3.4 conn=wye kv=0.1270 pf=1 pmpp=2.04 kva=2.04 irradiance=1 temperature=25 %cutin=20 %cutout=20 effcurve=MyEff P-TCurve=MyPvsT Daily=IRRAD_DIA TDaily=TEMP_DIA
New PVSystem.GD_773f6dbc0cfac7652dda2de25ef68d164f5e99e5113b602ea2fd99e4028651ef_1 phases=1 bus1=node_418022982.1.4 conn=wye kv=0.1270 pf=1 pmpp=0.68 kva=0.68 irradiance=1 temperature=25 %cutin=20 %cutout=20 effcurve=MyEff P-TCurve=MyPvsT Daily=IRRAD_DIA TDaily=TEMP_DIA
New PVSystem.GD_773f6dbc0cfac7652dda2de25ef68d164f5e99e5113b602ea2fd99e4028651ef_2 phases=1 bus1=node_418022982.2.4 conn=wye kv=0.1270 pf=1 pmpp=0.68 kva=0.68 irradiance=1 temperature=25 %cutin=20 %cutout=20 effcurve=MyEff P-TCurve=MyPvsT Daily=IRRAD_DIA TDaily=TEMP_DIA
New PVSystem.GD_773f6dbc0cfac7652dda2de25ef68d164f5e99e5113b602ea2fd99e4028651ef_3 phases=1 bus1=node_418022982.3.4 conn=wye kv=0.1270 pf=1 pmpp=0.68 kva=0.68 irradiance=1 temperature=25 %cutin=20 %cutout=20 effcurve=MyEff P-TCurve=MyPvsT Daily=IRRAD_DIA TDaily=TEMP_DIA
New PVSystem.GD_abbfc506ca9706742a6111cc22a86156b739cb84b67e37454318c786f1ff618e_1 phases=1 bus1=node_418022982.1.4 conn=wye kv=0.1270 pf=1 pmpp=0.91 kva=0.91 irradiance=1 temperature=25 %cutin=20 %cutout=20 effcurve=MyEff P-TCurve=MyPvsT Daily=IRRAD_DIA TDaily=TEMP_DIA
New PVSystem.GD_abbfc506ca9706742a6111cc22a86156b739cb84b67e37454318c786f1ff618e_2 phases=1 bus1=node_418022982.2.4 conn=wye kv=0.1270 pf=1 pmpp=0.91 kva=0.91 irradiance=1 temperature=25 %cutin=20 %cutout=20 effcurve=MyEff P-TCurve=MyPvsT Daily=IRRAD_DIA TDaily=TEMP_DIA
New PVSystem.GD_abbfc506ca9706742a6111cc22a86156b739cb84b67e37454318c786f1ff618e_3 phases=1 bus1=node_418022982.3.4 conn=wye kv=0.1270 pf=1 pmpp=0.91 kva=0.91 irradiance=1 temperature=25 %cutin=20 %cutout=20 effcurve=MyEff P-TCurve=MyPvsT Daily=IRRAD_DIA TDaily=TEMP_DIA
New PVSystem.GD_c38c547947013db6f04c4c9fe603fb970061f89c3bd18ff5c17d546661b5f0a7_1 phases=1 bus1=node_418022982.1.4 conn=wye kv=0.1270 pf=1 pmpp=0.62 kva=0.62 irradiance=1 temperature=25 %cutin=20 %cutout=20 effcurve=MyEff P-TCurve=MyPvsT Daily=IRRAD_DIA TDaily=TEMP_DIA
New PVSystem.GD_c38c547947013db6f04c4c9fe603fb970061f89c3bd18ff5c17d546661b5f0a7_2 phases=1 bus1=node_418022982.2.4 conn=wye kv=0.1270 pf=1 pmpp=0.62 kva=0.62 irradiance=1 temperature=25 %cutin=20 %cutout=20 effcurve=MyEff P-TCurve=MyPvsT Daily=IRRAD_DIA TDaily=TEMP_DIA
New PVSystem.GD_c38c547947013db6f04c4c9fe603fb970061f89c3bd18ff5c17d546661b5f0a7_3 phases=1 bus1=node_418022982.3.4 conn=wye kv=0.1270 pf=1 pmpp=0.62 kva=0.62 irradiance=1 temperature=25 %cutin=20 %cutout=20 effcurve=MyEff P-TCurve=MyPvsT Daily=IRRAD_DIA TDaily=TEMP_DIA
New PVSystem.GD_85088f706a3b5970596afe9ba556d000d28e2ee2bcd0786a29c8072306a9cd8d_1 phases=1 bus1=node_418022982.1.4 conn=wye kv=0.1270 pf=1 pmpp=0.12 kva=0.12 irradiance=1 temperature=25 %cutin=20 %cutout=20 effcurve=MyEff P-TCurve=MyPvsT Daily=IRRAD_DIA TDaily=TEMP_DIA
New PVSystem.GD_85088f706a3b5970596afe9ba556d000d28e2ee2bcd0786a29c8072306a9cd8d_2 phases=1 bus1=node_418022982.2.4 conn=wye kv=0.1270 pf=1 pmpp=0.12 kva=0.12 irradiance=1 temperature=25 %cutin=20 %cutout=20 effcurve=MyEff P-TCurve=MyPvsT Daily=IRRAD_DIA TDaily=TEMP_DIA
New PVSystem.GD_85088f706a3b5970596afe9ba556d000d28e2ee2bcd0786a29c8072306a9cd8d_3 phases=1 bus1=node_418022982.3.4 conn=wye kv=0.1270 pf=1 pmpp=0.12 kva=0.12 irradiance=1 temperature=25 %cutin=20 %cutout=20 effcurve=MyEff P-TCurve=MyPvsT Daily=IRRAD_DIA TDaily=TEMP_DIA
New PVSystem.GD_7da10fa93585dcee17b265b6d2c088333c26150e8874786d23d5cbc2315fa8bc_1 phases=1 bus1=node_418669136.1.4 conn=wye kv=0.1200 pf=1 pmpp=0.70 kva=0.70 irradiance=1 temperature=25 %cutin=20 %cutout=20 effcurve=MyEff P-TCurve=MyPvsT Daily=IRRAD_DIA TDaily=TEMP_DIA
New PVSystem.GD_7da10fa93585dcee17b265b6d2c088333c26150e8874786d23d5cbc2315fa8bc_2 phases=1 bus1=node_418669136.2.4 conn=wye kv=0.1200 pf=1 pmpp=0.70 kva=0.70 irradiance=1 temperature=25 %cutin=20 %cutout=20 effcurve=MyEff P-TCurve=MyPvsT Daily=IRRAD_DIA TDaily=TEMP_DIA
New PVSystem.GD_c9666f1255743aee0bb493a86035663acae1d1f171e33ea1284be02e16400179_1 phases=1 bus1=node_418669136.1.4 conn=wye kv=0.1200 pf=1 pmpp=0.40 kva=0.40 irradiance=1 temperature=25 %cutin=20 %cutout=20 effcurve=MyEff P-TCurve=MyPvsT Daily=IRRAD_DIA TDaily=TEMP_DIA
New PVSystem.GD_c9666f1255743aee0bb493a86035663acae1d1f171e33ea1284be02e16400179_2 phases=1 bus1=node_418669136.2.4 conn=wye kv=0.1200 pf=1 pmpp=0.40 kva=0.40 irradiance=1 temperature=25 %cutin=20 %cutout=20 effcurve=MyEff P-TCurve=MyPvsT Daily=IRRAD_DIA TDaily=TEMP_DIA
New PVSystem.GD_14c33d46f0560b06ad5eaa3ef5e3d3f86edd53b9a44e17de2d89962bfd80684f_1 phases=1 bus1=node_418669136.1.4 conn=wye kv=0.1200 pf=1 pmpp=0.63 kva=0.63 irradiance=1 temperature=25 %cutin=20 %cutout=20 effcurve=MyEff P-TCurve=MyPvsT Daily=IRRAD_DIA TDaily=TEMP_DIA
New PVSystem.GD_14c33d46f0560b06ad5eaa3ef5e3d3f86edd53b9a44e17de2d89962bfd80684f_2 phases=1 bus1=node_418669136.2.4 conn=wye kv=0.1200 pf=1 pmpp=0.63 kva=0.63 irradiance=1 temperature=25 %cutin=20 %cutout=20 effcurve=MyEff P-TCurve=MyPvsT Daily=IRRAD_DIA TDaily=TEMP_DIA
New PVSystem.GD_44a75df26c08ff91458334f052ad77cb0954c46da6f0c00773d881b6d88f4856_1 phases=1 bus1=node_418032735.1.4 conn=wye kv=0.1200 pf=1 pmpp=0.80 kva=0.80 irradiance=1 temperature=25 %cutin=20 %cutout=20 effcurve=MyEff P-TCurve=MyPvsT Daily=IRRAD_DIA TDaily=TEMP_DIA
New PVSystem.GD_44a75df26c08ff91458334f052ad77cb0954c46da6f0c00773d881b6d88f4856_2 phases=1 bus1=node_418032735.2.4 conn=wye kv=0.1200 pf=1 pmpp=0.80 kva=0.80 irradiance=1 temperature=25 %cutin=20 %cutout=20 effcurve=MyEff P-TCurve=MyPvsT Daily=IRRAD_DIA TDaily=TEMP_DIA
New PVSystem.GD_7befbbc395fce1d05d2845a6110a35b2e8a353f7713a43e0b95ab796e075a424_1 phases=1 bus1=node_417047478.1.4 conn=wye kv=0.1200 pf=1 pmpp=4.47 kva=4.47 irradiance=1 temperature=25 %cutin=20 %cutout=20 effcurve=MyEff P-TCurve=MyPvsT Daily=IRRAD_DIA TDaily=TEMP_DIA
New PVSystem.GD_7befbbc395fce1d05d2845a6110a35b2e8a353f7713a43e0b95ab796e075a424_2 phases=1 bus1=node_417047478.2.4 conn=wye kv=0.1200 pf=1 pmpp=4.47 kva=4.47 irradiance=1 temperature=25 %cutin=20 %cutout=20 effcurve=MyEff P-TCurve=MyPvsT Daily=IRRAD_DIA TDaily=TEMP_DIA
New PVSystem.GD_168955c6fc84730ce73e8e97b5d5c2c3a7f167147b663199e5f727544f786e70_1 phases=1 bus1=node_417047478.1.4 conn=wye kv=0.1200 pf=1 pmpp=0.51 kva=0.51 irradiance=1 temperature=25 %cutin=20 %cutout=20 effcurve=MyEff P-TCurve=MyPvsT Daily=IRRAD_DIA TDaily=TEMP_DIA
New PVSystem.GD_168955c6fc84730ce73e8e97b5d5c2c3a7f167147b663199e5f727544f786e70_2 phases=1 bus1=node_417047478.2.4 conn=wye kv=0.1200 pf=1 pmpp=0.51 kva=0.51 irradiance=1 temperature=25 %cutin=20 %cutout=20 effcurve=MyEff P-TCurve=MyPvsT Daily=IRRAD_DIA TDaily=TEMP_DIA
New PVSystem.GD_6cc7b9a431feeac45b46e190640065e46d71d70238a961d3c21cc50561d3e4e7_1 phases=1 bus1=node_417048165.1.4 conn=wye kv=0.1200 pf=1 pmpp=9.58 kva=9.58 irradiance=1 temperature=25 %cutin=20 %cutout=20 effcurve=MyEff P-TCurve=MyPvsT Daily=IRRAD_DIA TDaily=TEMP_DIA
New PVSystem.GD_6cc7b9a431feeac45b46e190640065e46d71d70238a961d3c21cc50561d3e4e7_2 phases=1 bus1=node_417048165.2.4 conn=wye kv=0.1200 pf=1 pmpp=9.58 kva=9.58 irradiance=1 temperature=25 %cutin=20 %cutout=20 effcurve=MyEff P-TCurve=MyPvsT Daily=IRRAD_DIA TDaily=TEMP_DIA
New PVSystem.GD_5f6ce3291cc9892c4bdd732749f959714e7c98a7388dfeeb247523b2ad8d52ef_1 phases=1 bus1=node_418023519.1.4 conn=wye kv=0.1200 pf=1 pmpp=0.19 kva=0.19 irradiance=1 temperature=25 %cutin=20 %cutout=20 effcurve=MyEff P-TCurve=MyPvsT Daily=IRRAD_DIA TDaily=TEMP_DIA
New PVSystem.GD_5f6ce3291cc9892c4bdd732749f959714e7c98a7388dfeeb247523b2ad8d52ef_2 phases=1 bus1=node_418023519.2.4 conn=wye kv=0.1200 pf=1 pmpp=0.19 kva=0.19 irradiance=1 temperature=25 %cutin=20 %cutout=20 effcurve=MyEff P-TCurve=MyPvsT Daily=IRRAD_DIA TDaily=TEMP_DIA
New PVSystem.GD_e8a966eef2495b78ff4962249ebe2bf94173f35a47ba15cc8d5427526d9918a5_1 phases=1 bus1=node_417048168.1.4 conn=wye kv=0.1200 pf=1 pmpp=10.29 kva=10.29 irradiance=1 temperature=25 %cutin=20 %cutout=20 effcurve=MyEff P-TCurve=MyPvsT Daily=IRRAD_DIA TDaily=TEMP_DIA
New PVSystem.GD_e8a966eef2495b78ff4962249ebe2bf94173f35a47ba15cc8d5427526d9918a5_2 phases=1 bus1=node_417048168.2.4 conn=wye kv=0.1200 pf=1 pmpp=10.29 kva=10.29 irradiance=1 temperature=25 %cutin=20 %cutout=20 effcurve=MyEff P-TCurve=MyPvsT Daily=IRRAD_DIA TDaily=TEMP_DIA
New PVSystem.GD_785b8c33be555a53c12522103c411cff62bda2eac39d29a854218dfa64608978_1 phases=1 bus1=node_417047592.1.4 conn=wye kv=0.1200 pf=1 pmpp=2.14 kva=2.14 irradiance=1 temperature=25 %cutin=20 %cutout=20 effcurve=MyEff P-TCurve=MyPvsT Daily=IRRAD_DIA TDaily=TEMP_DIA
New PVSystem.GD_785b8c33be555a53c12522103c411cff62bda2eac39d29a854218dfa64608978_2 phases=1 bus1=node_417047592.2.4 conn=wye kv=0.1200 pf=1 pmpp=2.14 kva=2.14 irradiance=1 temperature=25 %cutin=20 %cutout=20 effcurve=MyEff P-TCurve=MyPvsT Daily=IRRAD_DIA TDaily=TEMP_DIA
New PVSystem.GD_d064e9122c26a98a4f6962bc28ff79858984a7ef267f3a4f8d68aaa61d19b99d_1 phases=1 bus1=node_418501491.1.4 conn=wye kv=0.1270 pf=1 pmpp=1.48 kva=1.48 irradiance=1 temperature=25 %cutin=20 %cutout=20 effcurve=MyEff P-TCurve=MyPvsT Daily=IRRAD_DIA TDaily=TEMP_DIA
New PVSystem.GD_d064e9122c26a98a4f6962bc28ff79858984a7ef267f3a4f8d68aaa61d19b99d_2 phases=1 bus1=node_418501491.2.4 conn=wye kv=0.1270 pf=1 pmpp=1.48 kva=1.48 irradiance=1 temperature=25 %cutin=20 %cutout=20 effcurve=MyEff P-TCurve=MyPvsT Daily=IRRAD_DIA TDaily=TEMP_DIA
New PVSystem.GD_d064e9122c26a98a4f6962bc28ff79858984a7ef267f3a4f8d68aaa61d19b99d_3 phases=1 bus1=node_418501491.3.4 conn=wye kv=0.1270 pf=1 pmpp=1.48 kva=1.48 irradiance=1 temperature=25 %cutin=20 %cutout=20 effcurve=MyEff P-TCurve=MyPvsT Daily=IRRAD_DIA TDaily=TEMP_DIA
New PVSystem.GD_db06938987ce2753b9d9bf996fed7769a91ee7c5040c8b57fcf7a1fc8867d2d7_1 phases=1 bus1=node_418501491.1.4 conn=wye kv=0.1270 pf=1 pmpp=1.22 kva=1.22 irradiance=1 temperature=25 %cutin=20 %cutout=20 effcurve=MyEff P-TCurve=MyPvsT Daily=IRRAD_DIA TDaily=TEMP_DIA
New PVSystem.GD_db06938987ce2753b9d9bf996fed7769a91ee7c5040c8b57fcf7a1fc8867d2d7_2 phases=1 bus1=node_418501491.2.4 conn=wye kv=0.1270 pf=1 pmpp=1.22 kva=1.22 irradiance=1 temperature=25 %cutin=20 %cutout=20 effcurve=MyEff P-TCurve=MyPvsT Daily=IRRAD_DIA TDaily=TEMP_DIA
New PVSystem.GD_db06938987ce2753b9d9bf996fed7769a91ee7c5040c8b57fcf7a1fc8867d2d7_3 phases=1 bus1=node_418501491.3.4 conn=wye kv=0.1270 pf=1 pmpp=1.22 kva=1.22 irradiance=1 temperature=25 %cutin=20 %cutout=20 effcurve=MyEff P-TCurve=MyPvsT Daily=IRRAD_DIA TDaily=TEMP_DIA
New PVSystem.GD_defc8eb2106fc14689d98ff2c5b2862f25a99c30e75ac6631679b1db49bd03ba_1 phases=1 bus1=node_418501491.1.4 conn=wye kv=0.1270 pf=1 pmpp=4.91 kva=4.91 irradiance=1 temperature=25 %cutin=20 %cutout=20 effcurve=MyEff P-TCurve=MyPvsT Daily=IRRAD_DIA TDaily=TEMP_DIA
New PVSystem.GD_defc8eb2106fc14689d98ff2c5b2862f25a99c30e75ac6631679b1db49bd03ba_2 phases=1 bus1=node_418501491.2.4 conn=wye kv=0.1270 pf=1 pmpp=4.91 kva=4.91 irradiance=1 temperature=25 %cutin=20 %cutout=20 effcurve=MyEff P-TCurve=MyPvsT Daily=IRRAD_DIA TDaily=TEMP_DIA
New PVSystem.GD_defc8eb2106fc14689d98ff2c5b2862f25a99c30e75ac6631679b1db49bd03ba_3 phases=1 bus1=node_418501491.3.4 conn=wye kv=0.1270 pf=1 pmpp=4.91 kva=4.91 irradiance=1 temperature=25 %cutin=20 %cutout=20 effcurve=MyEff P-TCurve=MyPvsT Daily=IRRAD_DIA TDaily=TEMP_DIA
New PVSystem.GD_32ac78bc7ddea9185486bc9c006f2043bb6c217b13656c494c41f15e153686cc_1 phases=1 bus1=node_418989158.1.4 conn=wye kv=0.1200 pf=1 pmpp=1.85 kva=1.85 irradiance=1 temperature=25 %cutin=20 %cutout=20 effcurve=MyEff P-TCurve=MyPvsT Daily=IRRAD_DIA TDaily=TEMP_DIA
New PVSystem.GD_32ac78bc7ddea9185486bc9c006f2043bb6c217b13656c494c41f15e153686cc_2 phases=1 bus1=node_418989158.2.4 conn=wye kv=0.1200 pf=1 pmpp=1.85 kva=1.85 irradiance=1 temperature=25 %cutin=20 %cutout=20 effcurve=MyEff P-TCurve=MyPvsT Daily=IRRAD_DIA TDaily=TEMP_DIA
New PVSystem.GD_a97936d69b4f9de99fbae6b50ecd2d3a4c248663e01f775bc75fcb3a1c929baf_1 phases=1 bus1=node_418989158.1.4 conn=wye kv=0.1200 pf=1 pmpp=2.74 kva=2.74 irradiance=1 temperature=25 %cutin=20 %cutout=20 effcurve=MyEff P-TCurve=MyPvsT Daily=IRRAD_DIA TDaily=TEMP_DIA
New PVSystem.GD_a97936d69b4f9de99fbae6b50ecd2d3a4c248663e01f775bc75fcb3a1c929baf_2 phases=1 bus1=node_418989158.2.4 conn=wye kv=0.1200 pf=1 pmpp=2.74 kva=2.74 irradiance=1 temperature=25 %cutin=20 %cutout=20 effcurve=MyEff P-TCurve=MyPvsT Daily=IRRAD_DIA TDaily=TEMP_DIA
New PVSystem.GD_1bbbf951c28f5217a90894c18dc3406079ee7306356bc846eb64911bc53d16c0_1 phases=1 bus1=node_418500741.1.4 conn=wye kv=0.1270 pf=1 pmpp=0.53 kva=0.53 irradiance=1 temperature=25 %cutin=20 %cutout=20 effcurve=MyEff P-TCurve=MyPvsT Daily=IRRAD_DIA TDaily=TEMP_DIA
New PVSystem.GD_1bbbf951c28f5217a90894c18dc3406079ee7306356bc846eb64911bc53d16c0_2 phases=1 bus1=node_418500741.2.4 conn=wye kv=0.1270 pf=1 pmpp=0.53 kva=0.53 irradiance=1 temperature=25 %cutin=20 %cutout=20 effcurve=MyEff P-TCurve=MyPvsT Daily=IRRAD_DIA TDaily=TEMP_DIA
New PVSystem.GD_1bbbf951c28f5217a90894c18dc3406079ee7306356bc846eb64911bc53d16c0_3 phases=1 bus1=node_418500741.3.4 conn=wye kv=0.1270 pf=1 pmpp=0.53 kva=0.53 irradiance=1 temperature=25 %cutin=20 %cutout=20 effcurve=MyEff P-TCurve=MyPvsT Daily=IRRAD_DIA TDaily=TEMP_DIA
New PVSystem.GD_cfe5791f7e1f82cfe0c74cdf823b9b74af33a07eb736b6d2429c8a0fb70d5afe_1 phases=1 bus1=node_418500741.1.4 conn=wye kv=0.1270 pf=1 pmpp=0.85 kva=0.85 irradiance=1 temperature=25 %cutin=20 %cutout=20 effcurve=MyEff P-TCurve=MyPvsT Daily=IRRAD_DIA TDaily=TEMP_DIA
New PVSystem.GD_cfe5791f7e1f82cfe0c74cdf823b9b74af33a07eb736b6d2429c8a0fb70d5afe_2 phases=1 bus1=node_418500741.2.4 conn=wye kv=0.1270 pf=1 pmpp=0.85 kva=0.85 irradiance=1 temperature=25 %cutin=20 %cutout=20 effcurve=MyEff P-TCurve=MyPvsT Daily=IRRAD_DIA TDaily=TEMP_DIA
New PVSystem.GD_cfe5791f7e1f82cfe0c74cdf823b9b74af33a07eb736b6d2429c8a0fb70d5afe_3 phases=1 bus1=node_418500741.3.4 conn=wye kv=0.1270 pf=1 pmpp=0.85 kva=0.85 irradiance=1 temperature=25 %cutin=20 %cutout=20 effcurve=MyEff P-TCurve=MyPvsT Daily=IRRAD_DIA TDaily=TEMP_DIA
New PVSystem.GD_6397088acf2688d510a76756aac06cb274fa935afd5ad31ac6757de4972e09ab_1 phases=1 bus1=node_418501503.1.4 conn=wye kv=0.1270 pf=1 pmpp=0.46 kva=0.46 irradiance=1 temperature=25 %cutin=20 %cutout=20 effcurve=MyEff P-TCurve=MyPvsT Daily=IRRAD_DIA TDaily=TEMP_DIA
New PVSystem.GD_6397088acf2688d510a76756aac06cb274fa935afd5ad31ac6757de4972e09ab_2 phases=1 bus1=node_418501503.2.4 conn=wye kv=0.1270 pf=1 pmpp=0.46 kva=0.46 irradiance=1 temperature=25 %cutin=20 %cutout=20 effcurve=MyEff P-TCurve=MyPvsT Daily=IRRAD_DIA TDaily=TEMP_DIA
New PVSystem.GD_6397088acf2688d510a76756aac06cb274fa935afd5ad31ac6757de4972e09ab_3 phases=1 bus1=node_418501503.3.4 conn=wye kv=0.1270 pf=1 pmpp=0.46 kva=0.46 irradiance=1 temperature=25 %cutin=20 %cutout=20 effcurve=MyEff P-TCurve=MyPvsT Daily=IRRAD_DIA TDaily=TEMP_DIA
New PVSystem.GD_dc111903df2ad1aa8a2f890e1bae5218d87f7f76b1d2c0f0831e8ee44b14ceb1_1 phases=1 bus1=node_418733571.1.4 conn=wye kv=0.1270 pf=1 pmpp=4.53 kva=4.53 irradiance=1 temperature=25 %cutin=20 %cutout=20 effcurve=MyEff P-TCurve=MyPvsT Daily=IRRAD_DIA TDaily=TEMP_DIA
New PVSystem.GD_dc111903df2ad1aa8a2f890e1bae5218d87f7f76b1d2c0f0831e8ee44b14ceb1_2 phases=1 bus1=node_418733571.2.4 conn=wye kv=0.1270 pf=1 pmpp=4.53 kva=4.53 irradiance=1 temperature=25 %cutin=20 %cutout=20 effcurve=MyEff P-TCurve=MyPvsT Daily=IRRAD_DIA TDaily=TEMP_DIA
New PVSystem.GD_dc111903df2ad1aa8a2f890e1bae5218d87f7f76b1d2c0f0831e8ee44b14ceb1_3 phases=1 bus1=node_418733571.3.4 conn=wye kv=0.1270 pf=1 pmpp=4.53 kva=4.53 irradiance=1 temperature=25 %cutin=20 %cutout=20 effcurve=MyEff P-TCurve=MyPvsT Daily=IRRAD_DIA TDaily=TEMP_DIA
New PVSystem.GD_323d4dad9fedd2f23e2e8cbcb16ae13ab2f6b11c82483278d319df705ddb8e1a_1 phases=1 bus1=node_418019535.1.4 conn=wye kv=0.1200 pf=1 pmpp=0.77 kva=0.77 irradiance=1 temperature=25 %cutin=20 %cutout=20 effcurve=MyEff P-TCurve=MyPvsT Daily=IRRAD_DIA TDaily=TEMP_DIA
New PVSystem.GD_323d4dad9fedd2f23e2e8cbcb16ae13ab2f6b11c82483278d319df705ddb8e1a_2 phases=1 bus1=node_418019535.2.4 conn=wye kv=0.1200 pf=1 pmpp=0.77 kva=0.77 irradiance=1 temperature=25 %cutin=20 %cutout=20 effcurve=MyEff P-TCurve=MyPvsT Daily=IRRAD_DIA TDaily=TEMP_DIA
New PVSystem.GD_99617d969691c18d5c10d23075512650aaf0a59f169d39b7fc09709fb6bae917_1 phases=1 bus1=node_418500285.1.4 conn=wye kv=0.1270 pf=1 pmpp=0.37 kva=0.37 irradiance=1 temperature=25 %cutin=20 %cutout=20 effcurve=MyEff P-TCurve=MyPvsT Daily=IRRAD_DIA TDaily=TEMP_DIA
New PVSystem.GD_99617d969691c18d5c10d23075512650aaf0a59f169d39b7fc09709fb6bae917_2 phases=1 bus1=node_418500285.2.4 conn=wye kv=0.1270 pf=1 pmpp=0.37 kva=0.37 irradiance=1 temperature=25 %cutin=20 %cutout=20 effcurve=MyEff P-TCurve=MyPvsT Daily=IRRAD_DIA TDaily=TEMP_DIA
New PVSystem.GD_99617d969691c18d5c10d23075512650aaf0a59f169d39b7fc09709fb6bae917_3 phases=1 bus1=node_418500285.3.4 conn=wye kv=0.1270 pf=1 pmpp=0.37 kva=0.37 irradiance=1 temperature=25 %cutin=20 %cutout=20 effcurve=MyEff P-TCurve=MyPvsT Daily=IRRAD_DIA TDaily=TEMP_DIA
New PVSystem.GD_01b1498a5572d5c4afc6bb9eb1a6ba882bdcdb860a8c9ddf76f2f1391742deb6_1 phases=1 bus1=node_418990061.1.4 conn=wye kv=0.1270 pf=1 pmpp=7.19 kva=7.19 irradiance=1 temperature=25 %cutin=20 %cutout=20 effcurve=MyEff P-TCurve=MyPvsT Daily=IRRAD_DIA TDaily=TEMP_DIA
New PVSystem.GD_01b1498a5572d5c4afc6bb9eb1a6ba882bdcdb860a8c9ddf76f2f1391742deb6_2 phases=1 bus1=node_418990061.2.4 conn=wye kv=0.1270 pf=1 pmpp=7.19 kva=7.19 irradiance=1 temperature=25 %cutin=20 %cutout=20 effcurve=MyEff P-TCurve=MyPvsT Daily=IRRAD_DIA TDaily=TEMP_DIA
New PVSystem.GD_01b1498a5572d5c4afc6bb9eb1a6ba882bdcdb860a8c9ddf76f2f1391742deb6_3 phases=1 bus1=node_418990061.3.4 conn=wye kv=0.1270 pf=1 pmpp=7.19 kva=7.19 irradiance=1 temperature=25 %cutin=20 %cutout=20 effcurve=MyEff P-TCurve=MyPvsT Daily=IRRAD_DIA TDaily=TEMP_DIA
New PVSystem.GD_1448963b0d3b53eaf8b9992e5d3c86014a96487e14f71eb65fd807cfa90e40e1_1 phases=1 bus1=node_417048006.1.4 conn=wye kv=0.1200 pf=1 pmpp=2.72 kva=2.72 irradiance=1 temperature=25 %cutin=20 %cutout=20 effcurve=MyEff P-TCurve=MyPvsT Daily=IRRAD_DIA TDaily=TEMP_DIA
New PVSystem.GD_1448963b0d3b53eaf8b9992e5d3c86014a96487e14f71eb65fd807cfa90e40e1_2 phases=1 bus1=node_417048006.2.4 conn=wye kv=0.1200 pf=1 pmpp=2.72 kva=2.72 irradiance=1 temperature=25 %cutin=20 %cutout=20 effcurve=MyEff P-TCurve=MyPvsT Daily=IRRAD_DIA TDaily=TEMP_DIA
New PVSystem.GD_48677cdafdbd57956e0a19629eac422edb88dda514dfda89087da39ec6e00639_1 phases=1 bus1=node_415020881.1.4 conn=wye kv=0.1200 pf=1 pmpp=1.00 kva=1.00 irradiance=1 temperature=25 %cutin=20 %cutout=20 effcurve=MyEff P-TCurve=MyPvsT Daily=IRRAD_DIA TDaily=TEMP_DIA
New PVSystem.GD_48677cdafdbd57956e0a19629eac422edb88dda514dfda89087da39ec6e00639_2 phases=1 bus1=node_415020881.2.4 conn=wye kv=0.1200 pf=1 pmpp=1.00 kva=1.00 irradiance=1 temperature=25 %cutin=20 %cutout=20 effcurve=MyEff P-TCurve=MyPvsT Daily=IRRAD_DIA TDaily=TEMP_DIA
New PVSystem.GD_8ffe4735d99657761bbbbf535aa8a0865c03fb00f5148f4140aeb66fe62083f7_1 phases=1 bus1=node_418406227.1.4 conn=wye kv=0.1200 pf=1 pmpp=7.04 kva=7.04 irradiance=1 temperature=25 %cutin=20 %cutout=20 effcurve=MyEff P-TCurve=MyPvsT Daily=IRRAD_DIA TDaily=TEMP_DIA
New PVSystem.GD_8ffe4735d99657761bbbbf535aa8a0865c03fb00f5148f4140aeb66fe62083f7_2 phases=1 bus1=node_418406227.2.4 conn=wye kv=0.1200 pf=1 pmpp=7.04 kva=7.04 irradiance=1 temperature=25 %cutin=20 %cutout=20 effcurve=MyEff P-TCurve=MyPvsT Daily=IRRAD_DIA TDaily=TEMP_DIA
New PVSystem.GD_e66a5e48600e03cff2670322ca7a478ecc1e58bf4c7fbacebb9d275bc8877d1d_1 phases=1 bus1=node_418498677.1.4 conn=wye kv=0.1270 pf=1 pmpp=0.77 kva=0.77 irradiance=1 temperature=25 %cutin=20 %cutout=20 effcurve=MyEff P-TCurve=MyPvsT Daily=IRRAD_DIA TDaily=TEMP_DIA
New PVSystem.GD_e66a5e48600e03cff2670322ca7a478ecc1e58bf4c7fbacebb9d275bc8877d1d_2 phases=1 bus1=node_418498677.2.4 conn=wye kv=0.1270 pf=1 pmpp=0.77 kva=0.77 irradiance=1 temperature=25 %cutin=20 %cutout=20 effcurve=MyEff P-TCurve=MyPvsT Daily=IRRAD_DIA TDaily=TEMP_DIA
New PVSystem.GD_e66a5e48600e03cff2670322ca7a478ecc1e58bf4c7fbacebb9d275bc8877d1d_3 phases=1 bus1=node_418498677.3.4 conn=wye kv=0.1270 pf=1 pmpp=0.77 kva=0.77 irradiance=1 temperature=25 %cutin=20 %cutout=20 effcurve=MyEff P-TCurve=MyPvsT Daily=IRRAD_DIA TDaily=TEMP_DIA
New PVSystem.GD_8ed791455cb28122160eb2cfe91fdf0d9370c6a1b30a9e723626ca2dcb2a0625_1 phases=1 bus1=node_417047505.1.4 conn=wye kv=0.1270 pf=1 pmpp=8.32 kva=8.32 irradiance=1 temperature=25 %cutin=20 %cutout=20 effcurve=MyEff P-TCurve=MyPvsT Daily=IRRAD_DIA TDaily=TEMP_DIA
New PVSystem.GD_8ed791455cb28122160eb2cfe91fdf0d9370c6a1b30a9e723626ca2dcb2a0625_2 phases=1 bus1=node_417047505.2.4 conn=wye kv=0.1270 pf=1 pmpp=8.32 kva=8.32 irradiance=1 temperature=25 %cutin=20 %cutout=20 effcurve=MyEff P-TCurve=MyPvsT Daily=IRRAD_DIA TDaily=TEMP_DIA
New PVSystem.GD_8ed791455cb28122160eb2cfe91fdf0d9370c6a1b30a9e723626ca2dcb2a0625_3 phases=1 bus1=node_417047505.3.4 conn=wye kv=0.1270 pf=1 pmpp=8.32 kva=8.32 irradiance=1 temperature=25 %cutin=20 %cutout=20 effcurve=MyEff P-TCurve=MyPvsT Daily=IRRAD_DIA TDaily=TEMP_DIA
New PVSystem.GD_f7aa0b7d46468f307fb103ce47a223e3c681c085498235c6b2ecffecd043ef01_1 phases=1 bus1=node_418018233.1.4 conn=wye kv=0.1200 pf=1 pmpp=7.10 kva=7.10 irradiance=1 temperature=25 %cutin=20 %cutout=20 effcurve=MyEff P-TCurve=MyPvsT Daily=IRRAD_DIA TDaily=TEMP_DIA
New PVSystem.GD_f7aa0b7d46468f307fb103ce47a223e3c681c085498235c6b2ecffecd043ef01_2 phases=1 bus1=node_418018233.2.4 conn=wye kv=0.1200 pf=1 pmpp=7.10 kva=7.10 irradiance=1 temperature=25 %cutin=20 %cutout=20 effcurve=MyEff P-TCurve=MyPvsT Daily=IRRAD_DIA TDaily=TEMP_DIA
New PVSystem.GD_3db2697df663e52ed61382ca033b2e8d28543db5f473fa0b959ffa45cc9b6736_1 phases=1 bus1=node_418022400.1.4 conn=wye kv=0.1200 pf=1 pmpp=0.29 kva=0.29 irradiance=1 temperature=25 %cutin=20 %cutout=20 effcurve=MyEff P-TCurve=MyPvsT Daily=IRRAD_DIA TDaily=TEMP_DIA
New PVSystem.GD_3db2697df663e52ed61382ca033b2e8d28543db5f473fa0b959ffa45cc9b6736_2 phases=1 bus1=node_418022400.2.4 conn=wye kv=0.1200 pf=1 pmpp=0.29 kva=0.29 irradiance=1 temperature=25 %cutin=20 %cutout=20 effcurve=MyEff P-TCurve=MyPvsT Daily=IRRAD_DIA TDaily=TEMP_DIA
New PVSystem.GD_3f246e8116716332ee255b3c4541b1861d759bac707cf1ae6efa317facff5a10_1 phases=1 bus1=node_417048369.1.4 conn=wye kv=0.1200 pf=1 pmpp=1.98 kva=1.98 irradiance=1 temperature=25 %cutin=20 %cutout=20 effcurve=MyEff P-TCurve=MyPvsT Daily=IRRAD_DIA TDaily=TEMP_DIA
New PVSystem.GD_3f246e8116716332ee255b3c4541b1861d759bac707cf1ae6efa317facff5a10_2 phases=1 bus1=node_417048369.2.4 conn=wye kv=0.1200 pf=1 pmpp=1.98 kva=1.98 irradiance=1 temperature=25 %cutin=20 %cutout=20 effcurve=MyEff P-TCurve=MyPvsT Daily=IRRAD_DIA TDaily=TEMP_DIA
New PVSystem.GD_f2f60ecd2cef4abaa4b2e77dcc0758b0f8a029fb79454a6a5c3050e25a83b5b0_1 phases=1 bus1=node_417047937.1.4 conn=wye kv=0.1200 pf=1 pmpp=0.77 kva=0.77 irradiance=1 temperature=25 %cutin=20 %cutout=20 effcurve=MyEff P-TCurve=MyPvsT Daily=IRRAD_DIA TDaily=TEMP_DIA
New PVSystem.GD_f2f60ecd2cef4abaa4b2e77dcc0758b0f8a029fb79454a6a5c3050e25a83b5b0_2 phases=1 bus1=node_417047937.2.4 conn=wye kv=0.1200 pf=1 pmpp=0.77 kva=0.77 irradiance=1 temperature=25 %cutin=20 %cutout=20 effcurve=MyEff P-TCurve=MyPvsT Daily=IRRAD_DIA TDaily=TEMP_DIA
New PVSystem.GD_1e87aed830233d1bb0a60695935b4ff2b2f6507f9b37c01e2248a5609c7eb6a1_1 phases=1 bus1=node_417047937.1.4 conn=wye kv=0.1200 pf=1 pmpp=0.66 kva=0.66 irradiance=1 temperature=25 %cutin=20 %cutout=20 effcurve=MyEff P-TCurve=MyPvsT Daily=IRRAD_DIA TDaily=TEMP_DIA
New PVSystem.GD_1e87aed830233d1bb0a60695935b4ff2b2f6507f9b37c01e2248a5609c7eb6a1_2 phases=1 bus1=node_417047937.2.4 conn=wye kv=0.1200 pf=1 pmpp=0.66 kva=0.66 irradiance=1 temperature=25 %cutin=20 %cutout=20 effcurve=MyEff P-TCurve=MyPvsT Daily=IRRAD_DIA TDaily=TEMP_DIA
New PVSystem.GD_f2232a508c5e7c0ef618ad348f2fe649e2c101451fc884fab4b96f1bc48e9226_1 phases=1 bus1=node_417047937.1.4 conn=wye kv=0.1200 pf=1 pmpp=0.60 kva=0.60 irradiance=1 temperature=25 %cutin=20 %cutout=20 effcurve=MyEff P-TCurve=MyPvsT Daily=IRRAD_DIA TDaily=TEMP_DIA
New PVSystem.GD_f2232a508c5e7c0ef618ad348f2fe649e2c101451fc884fab4b96f1bc48e9226_2 phases=1 bus1=node_417047937.2.4 conn=wye kv=0.1200 pf=1 pmpp=0.60 kva=0.60 irradiance=1 temperature=25 %cutin=20 %cutout=20 effcurve=MyEff P-TCurve=MyPvsT Daily=IRRAD_DIA TDaily=TEMP_DIA
New PVSystem.GD_6ac97cb0007ac167ade4ee520f33f6ca605563bf2dd2bc1fd500b5d4015031e6_1 phases=1 bus1=node_418026645.1.4 conn=wye kv=0.1200 pf=1 pmpp=0.30 kva=0.30 irradiance=1 temperature=25 %cutin=20 %cutout=20 effcurve=MyEff P-TCurve=MyPvsT Daily=IRRAD_DIA TDaily=TEMP_DIA
New PVSystem.GD_6ac97cb0007ac167ade4ee520f33f6ca605563bf2dd2bc1fd500b5d4015031e6_2 phases=1 bus1=node_418026645.2.4 conn=wye kv=0.1200 pf=1 pmpp=0.30 kva=0.30 irradiance=1 temperature=25 %cutin=20 %cutout=20 effcurve=MyEff P-TCurve=MyPvsT Daily=IRRAD_DIA TDaily=TEMP_DIA
New PVSystem.GD_373f800ef5fa0285531d52d5830f52ec38410fc786f949df0c69807c9bf14092_1 phases=1 bus1=node_782259536.1.4 conn=wye kv=0.1200 pf=1 pmpp=0.66 kva=0.66 irradiance=1 temperature=25 %cutin=20 %cutout=20 effcurve=MyEff P-TCurve=MyPvsT Daily=IRRAD_DIA TDaily=TEMP_DIA
New PVSystem.GD_373f800ef5fa0285531d52d5830f52ec38410fc786f949df0c69807c9bf14092_2 phases=1 bus1=node_782259536.2.4 conn=wye kv=0.1200 pf=1 pmpp=0.66 kva=0.66 irradiance=1 temperature=25 %cutin=20 %cutout=20 effcurve=MyEff P-TCurve=MyPvsT Daily=IRRAD_DIA TDaily=TEMP_DIA
New PVSystem.GD_10be4f3617de0b08bb3266511dd7cd167b179c296c119c4d030fbc840b656289_1 phases=1 bus1=node_419262296.1.4 conn=wye kv=0.1200 pf=1 pmpp=1.99 kva=1.99 irradiance=1 temperature=25 %cutin=20 %cutout=20 effcurve=MyEff P-TCurve=MyPvsT Daily=IRRAD_DIA TDaily=TEMP_DIA
New PVSystem.GD_10be4f3617de0b08bb3266511dd7cd167b179c296c119c4d030fbc840b656289_2 phases=1 bus1=node_419262296.2.4 conn=wye kv=0.1200 pf=1 pmpp=1.99 kva=1.99 irradiance=1 temperature=25 %cutin=20 %cutout=20 effcurve=MyEff P-TCurve=MyPvsT Daily=IRRAD_DIA TDaily=TEMP_DIA
New PVSystem.GD_245627f49570c8b49900b3dd0ad271b4036deb3b04c1d4c86241ea9bb7d407d1_1 phases=1 bus1=node_417595348.1.4 conn=wye kv=0.1200 pf=1 pmpp=0.32 kva=0.32 irradiance=1 temperature=25 %cutin=20 %cutout=20 effcurve=MyEff P-TCurve=MyPvsT Daily=IRRAD_DIA TDaily=TEMP_DIA
New PVSystem.GD_245627f49570c8b49900b3dd0ad271b4036deb3b04c1d4c86241ea9bb7d407d1_2 phases=1 bus1=node_417595348.2.4 conn=wye kv=0.1200 pf=1 pmpp=0.32 kva=0.32 irradiance=1 temperature=25 %cutin=20 %cutout=20 effcurve=MyEff P-TCurve=MyPvsT Daily=IRRAD_DIA TDaily=TEMP_DIA
New PVSystem.GD_862b6651969e5051ec1c3be5808eb981fc054a70b3a1f48f032570b7dfcc76e2_1 phases=1 bus1=node_417594409.1.4 conn=wye kv=0.1200 pf=1 pmpp=1.54 kva=1.54 irradiance=1 temperature=25 %cutin=20 %cutout=20 effcurve=MyEff P-TCurve=MyPvsT Daily=IRRAD_DIA TDaily=TEMP_DIA
New PVSystem.GD_862b6651969e5051ec1c3be5808eb981fc054a70b3a1f48f032570b7dfcc76e2_2 phases=1 bus1=node_417594409.2.4 conn=wye kv=0.1200 pf=1 pmpp=1.54 kva=1.54 irradiance=1 temperature=25 %cutin=20 %cutout=20 effcurve=MyEff P-TCurve=MyPvsT Daily=IRRAD_DIA TDaily=TEMP_DIA
New PVSystem.GD_d7cc08652885afe3c4d2da5f3b2f8c54083910f527f3e9b3f401609011130fea_1 phases=1 bus1=node_420407806.1.4 conn=wye kv=0.1200 pf=1 pmpp=0.74 kva=0.74 irradiance=1 temperature=25 %cutin=20 %cutout=20 effcurve=MyEff P-TCurve=MyPvsT Daily=IRRAD_DIA TDaily=TEMP_DIA
New PVSystem.GD_d7cc08652885afe3c4d2da5f3b2f8c54083910f527f3e9b3f401609011130fea_2 phases=1 bus1=node_420407806.2.4 conn=wye kv=0.1200 pf=1 pmpp=0.74 kva=0.74 irradiance=1 temperature=25 %cutin=20 %cutout=20 effcurve=MyEff P-TCurve=MyPvsT Daily=IRRAD_DIA TDaily=TEMP_DIA
New PVSystem.GD_32f96ae3519f2fc1ceee6c61c23b7ad66dcc378ed47a9663d00afb9b3a23907f_1 phases=1 bus1=node_417594022.1.4 conn=wye kv=0.1200 pf=1 pmpp=10.31 kva=10.31 irradiance=1 temperature=25 %cutin=20 %cutout=20 effcurve=MyEff P-TCurve=MyPvsT Daily=IRRAD_DIA TDaily=TEMP_DIA
New PVSystem.GD_32f96ae3519f2fc1ceee6c61c23b7ad66dcc378ed47a9663d00afb9b3a23907f_2 phases=1 bus1=node_417594022.2.4 conn=wye kv=0.1200 pf=1 pmpp=10.31 kva=10.31 irradiance=1 temperature=25 %cutin=20 %cutout=20 effcurve=MyEff P-TCurve=MyPvsT Daily=IRRAD_DIA TDaily=TEMP_DIA
New PVSystem.GD_b89fc094e93fa32fea9022ffbb27facab7c15a96a27cba656346ac5c25dd51f2_1 phases=1 bus1=node_418498839.1.4 conn=wye kv=0.1200 pf=1 pmpp=0.91 kva=0.91 irradiance=1 temperature=25 %cutin=20 %cutout=20 effcurve=MyEff P-TCurve=MyPvsT Daily=IRRAD_DIA TDaily=TEMP_DIA
New PVSystem.GD_b89fc094e93fa32fea9022ffbb27facab7c15a96a27cba656346ac5c25dd51f2_2 phases=1 bus1=node_418498839.2.4 conn=wye kv=0.1200 pf=1 pmpp=0.91 kva=0.91 irradiance=1 temperature=25 %cutin=20 %cutout=20 effcurve=MyEff P-TCurve=MyPvsT Daily=IRRAD_DIA TDaily=TEMP_DIA
New PVSystem.GD_6775a3a257baec9c658707b9bc237613eeb618336b014a2e7882fe203cc54071_1 phases=1 bus1=node_417593155.1.4 conn=wye kv=0.1200 pf=1 pmpp=0.93 kva=0.93 irradiance=1 temperature=25 %cutin=20 %cutout=20 effcurve=MyEff P-TCurve=MyPvsT Daily=IRRAD_DIA TDaily=TEMP_DIA
...
